IEEE123Nodeckt_VLN_Node.txt

LINE-GROUND and LINE-LINE VOLTAGES BY BUS & NODE

Bus  Node    VLN (kV)   Angle      pu     Base kV    Node-Node   VLL (kV)  Angle      pu

1 .. 1       2.5219 /_    0.0      1.05     4.160
2 .. 1       2.5219 /_    0.0      1.05     4.160
3 .. 1       2.5219 /_    0.0      1.05     4.160
4 .. 1       2.5219 /_    0.0      1.05     4.160
5 .. 1       2.5219 /_    0.0      1.05     4.160
6 .. 1       2.5219 /_    0.0      1.05     4.160
7 .. 1       2.5219 /_    0.0      1.05     4.160
8 .. 1       2.5219 /_    0.0      1.05     4.160
9 .. 1       2.5219 /_    0.0      1.05     4.160
10 . 1       2.5219 /_    0.0      1.05     4.160
11 . 1       2.5219 /_    0.0      1.05     4.160
12 . 1       2.5219 /_    0.0      1.05     4.160
13 . 1       2.5219 /_    0.0      1.05     4.160
14 . 1       2.5219 /_    0.0      1.05     4.160
15 . 1       2.5219 /_    0.0      1.05     4.160
16 . 1       2.5219 /_    0.0      1.05     4.160
17 . 1       2.5219 /_    0.0      1.05     4.160
18 . 1       2.5219 /_    0.0      1.05     4.160
19 . 1       2.5219 /_    0.0      1.05     4.160
20 . 1       2.5219 /_    0.0      1.05     4.160
21 . 1       2.5219 /_    0.0      1.05     4.160
22 . 1       2.5219 /_    0.0      1.05     4.160
23 . 1       2.5219 /_    0.0      1.05     4.160
24 . 1       2.5219 /_    0.0      1.05     4.160
25 . 1       2.5219 /_    0.0      1.05     4.160
26 . 1       2.5219 /_    0.0      1.05     4.160
27 . 1       2.5219 /_    0.0      1.05     4.160
28 . 1       2.5219 /_    0.0      1.05     4.160
29 . 1       2.5219 /_    0.0      1.05     4.160
30 . 1       2.5219 /_    0.0      1.05     4.160
31 . 1       2.5219 /_    0.0      1.05     4.160
32 . 1       2.5219 /_    0.0      1.05     4.160
33 . 1       2.5219 /_    0.0      1.05     4.160
34 . 1       2.5219 /_    0.0      1.05     4.160
35 . 1       2.5219 /_    0.0      1.05     4.160
36 . 1       2.5219 /_    0.0      1.05     4.160
119  1       2.5219 /_    0.0      1.05     4.160
126  1       2.5219 /_    0.0      1.05     4.160
127  1       2.5219 /_    0.0      1.05     4.160
117  1       2.5219 /_    0.0      1.05     4.160
54 . 1       2.5219 /_    0.0      1.05     4.160
55 . 1       2.5219 /_    0.0      1.05     4.160
56 . 1       2.5219 /_    0.0      1.05     4.160
57 . 1       2.5219 /_    0.0      1.05     4.160
58 . 1       2.5219 /_    0.0      1.05     4.160
59 . 1       2.5219 /_    0.0      1.05     4.160
60 . 1       2.5219 /_    0.0      1.05     4.160
61 . 1       2.5219 /_    0.0      1.05     4.160
62 . 1       2.5219 /_    0.0      1.05     4.160
63 . 1       2.5219 /_    0.0      1.05     4.160
64 . 1       2.5219 /_    0.0      1.05     4.160
65 . 1       2.5219 /_    0.0      1.05     4.160
66 . 1       2.5219 /_    0.0      1.05     4.160
67 . 1       2.5219 /_    0.0      1.05     4.160
68 . 1       2.5219 /_    0.0      1.05     4.160
122  1       2.5219 /_    0.0      1.05     4.160
118  1       2.5219 /_    0.0      1.05     4.160
37 . 1       2.5219 /_    0.0      1.05     4.160
38 . 1       2.5219 /_    0.0      1.05     4.160
39 . 1       2.5219 /_    0.0      1.05     4.160
40 . 1       2.5219 /_    0.0      1.05     4.160
41 . 1       2.5219 /_    0.0      1.05     4.160
42 . 1       2.5219 /_    0.0      1.05     4.160
43 . 1       2.5219 /_    0.0      1.05     4.160
44 . 1       2.5219 /_    0.0      1.05     4.160
45 . 1       2.5219 /_    0.0      1.05     4.160
46 . 1       2.5219 /_    0.0      1.05     4.160
47 . 1       2.5219 /_    0.0      1.05     4.160
48 . 1       2.5219 /_    0.0      1.05     4.160
49 . 1       2.5219 /_    0.0      1.05     4.160
50 . 1       2.5219 /_    0.0      1.05     4.160
51 . 1       2.5219 /_    0.0      1.05     4.160
52 . 1       2.5219 /_    0.0      1.05     4.160
53 . 1       2.5219 /_    0.0      1.05     4.160
120  1       2.5219 /_    0.0      1.05     4.160
125  1       2.5219 /_    0.0      1.05     4.160
128  1       2.5219 /_    0.0      1.05     4.160
69 . 1       2.5219 /_    0.0      1.05     4.160
70 . 1       2.5219 /_    0.0      1.05     4.160
71 . 1       2.5219 /_    0.0      1.05     4.160
72 . 1       2.5219 /_    0.0      1.05     4.160
73 . 1       2.5219 /_    0.0      1.05     4.160
74 . 1       2.5219 /_    0.0      1.05     4.160
75 . 1       2.5219 /_    0.0      1.05     4.160
76 . 1       2.5219 /_    0.0      1.05     4.160
77 . 1       2.5219 /_    0.0      1.05     4.160
78 . 1       2.5219 /_    0.0      1.05     4.160
79 . 1       2.5219 /_    0.0      1.05     4.160
80 . 1       2.5219 /_    0.0      1.05     4.160
81 . 1       2.5219 /_    0.0      1.05     4.160
82 . 1       2.5219 /_    0.0      1.05     4.160
83 . 1       2.5219 /_    0.0      1.05     4.160
84 . 1       2.5219 /_    0.0      1.05     4.160
85 . 1       2.5219 /_    0.0      1.05     4.160
86 . 1       2.5219 /_    0.0      1.05     4.160
87 . 1       2.5219 /_    0.0      1.05     4.160
88 . 1       2.5219 /_    0.0      1.05     4.160
89 . 1       2.5219 /_    0.0      1.05     4.160
90 . 1       2.5219 /_    0.0      1.05     4.160
91 . 1       2.5219 /_    0.0      1.05     4.160
92 . 1       2.5219 /_    0.0      1.05     4.160
93 . 1       2.5219 /_    0.0      1.05     4.160
94 . 1       2.5219 /_    0.0      1.05     4.160
95 . 1       2.5219 /_    0.0      1.05     4.160
96 . 1       2.5219 /_    0.0      1.05     4.160
97 . 1       2.5219 /_    0.0      1.05     4.160
98 . 1       2.5219 /_    0.0      1.05     4.160
99 . 1       2.5219 /_    0.0      1.05     4.160
100  1       2.5219 /_    0.0      1.05     4.160
101  1       2.5219 /_    0.0      1.05     4.160
102  1       2.5219 /_    0.0      1.05     4.160
103  1       2.5219 /_    0.0      1.05     4.160
104  1       2.5219 /_    0.0      1.05     4.160
105  1       2.5219 /_    0.0      1.05     4.160
106  1       2.5219 /_    0.0      1.05     4.160
107  1       2.5219 /_    0.0      1.05     4.160
108  1       2.5219 /_    0.0      1.05     4.160
109  1       2.5219 /_    0.0      1.05     4.160
110  1       2.5219 /_    0.0      1.05     4.160
111  1       2.5219 /_    0.0      1.05     4.160
112  1       2.5219 /_    0.0      1.05     4.160
113  1       2.5219 /_    0.0      1.05     4.160
114  1       2.5219 /_    0.0      1.05     4.160
115  1       2.5219 /_    0.0      1.05     4.160
116  1       2.5219 /_    0.0      1.05     4.160
124  1       2.5219 /_    0.0      1.05     4.160
123  1       2.5219 /_    0.0      1.05     4.160
121  1       2.5219 /_    0.0      1.05     4.160
